CRYSTAL
PRIMVEC
 5.00000000000000 0.00000000000000 0.00000000000000
 0.00000000000000 5.00000000000000 0.00000000000000
 0.00000000000000 0.00000000000000 5.00000000000000
PRIMCOORD
 4 1
 28     0.00000000000000     0.00000000000000     0.00000000000000
 28     1.45000000000000     0.00000000000000     0.00000000000000
 28     0.00000000000000     1.45000000000000     0.00000000000000
 28     1.45000000000000     1.45000000000000     0.00000000000000
