CRYSTAL
PRIMVEC
 8.46683536902146 0.00000000000000 0.00000000000000
 0.00000000000000 8.46683536902146 0.00000000000000
 0.00000000000000 0.00000000000000 8.46683536902146
PRIMCOORD
 6 1
  7     3.68940268451073     3.76268268451073     4.27372268451073
  7     4.77743268451073     4.70416268451073     4.19312268451073
  1     2.87350268451073     4.18312268451073     4.73242268451073
  1     3.93592268451073     2.96739268451073     4.87339268451073
  1     4.53091268451073     5.49944268451073     3.59344268451073
  1     5.59333268451073     4.28371268451073     3.73442268451073
